Solid Connections
*SPICE Netlist generated by Advanced Sim server on 4/06/2025 5:17:11 PM
.options MixedSimGenerated

.PLOT {V(+3V3)} =PLOT(1) =AXIS(1)

*Selected Circuit Analyses:
.TRAN 0.1u 5u 0 0.1u

.END